LTspice 24.1.4 for Windows
Circuit: C:\Users\Guenther\Desktop\schoool_UNL\term_6\ECEN 307\Lab-Project-1\wizard staff\working\working zvs driver CW flyback protection.net
Start Time: Fri Apr 25 10:56:48 2025
solver = Normal
Maximum thread count: 28
tnom = 27
temp = 27
method = modified trap
C:\Users\Guenther\Desktop\schoool_UNL\term_6\ECEN 307\Lab-Project-1\wizard staff\working\working zvs driver CW flyback protection.net(3): Limiting rise time to 0.025.

V3 N012 0 PULSE(0 12 0 0n 0n 250m 500m)
^^^^^^^^^^^^^^^^^^^^^^^^^^^^^^^^^^^^^^^
C:\Users\Guenther\Desktop\schoool_UNL\term_6\ECEN 307\Lab-Project-1\wizard staff\working\working zvs driver CW flyback protection.net(3): Limiting fall time to 0.025.

V3 N012 0 PULSE(0 12 0 0n 0n 250m 500m)
^^^^^^^^^^^^^^^^^^^^^^^^^^^^^^^^^^^^^^^
Direct Newton iteration failed to find .op point.  (Use ".option noopiter" to skip.)
Starting Gmin stepping
Gmin = 10
Gmin = 1.07374
Gmin = 0.115292
Gmin = 0.0123794
Gmin = 0.00132923
Gmin = 0.000142725
Gmin = 1.5325e-05
Gmin = 1.6455e-06
vernier = 0.5
Gmin = 3.06744e-07
vernier = 0.666667
Gmin = 7.59426e-08
vernier = 0.888888
vernier = 1
Gmin = 9.33136e-09
Gmin = 1.00195e-09
Gmin = 1.07583e-10
Gmin = 1.15517e-11
Gmin = 1.24035e-12
Gmin = 1.33182e-13
Gmin = 0
Gmin stepping succeeded in finding the operating point.

